%pal nprocs 8
end
!b3lyp/g opt
*xyz 0 1 
O    2.3491    1.5230   -0.1177
O    2.9372   -0.8076    0.0556
O   -3.3345   -0.1557   -0.5374
N   -1.7160   -2.1985    0.1502
C    1.2544    0.7168   -0.0610
C    1.5903   -0.6142    0.0378
C   -1.0532    0.1527   -0.0231
C   -0.7100   -1.2070    0.0778
C   -0.0607    1.1332   -0.0941
C    0.6296   -1.6019    0.1091
C    3.4118    0.5507   -0.0443
C   -2.4482    0.5750   -0.0562
C   -2.8498    1.9334    0.5033
H   -0.2885    2.1894   -0.1860
H    0.9122   -2.6467    0.1871
H    4.0323    0.6405   -0.9434
H    4.0299    0.7719    0.8334
H   -1.4532   -3.1725    0.2253
H   -2.6944   -1.9468    0.1517
H   -2.7744    2.6906   -0.2808
H   -2.2231    2.2036    1.3575
H   -3.8831    1.8802    0.8598
*
